286

C -220.208000 24.072284 -97.665095
C -210.601000 66.702182 -75.291199
C -200.994000 94.051414 -35.668996
C -191.387000 99.854600 12.124544
C -181.780000 82.782301 57.140497
C -172.173000 46.745574 89.066251
C -162.566000 0.000000 100.588000
C -152.959000 -46.745574 89.066251
C -143.352000 -82.782301 57.140497
C -133.745000 -99.854600 12.124544
C -124.138000 -94.051414 -35.668996
C -114.531000 -66.702182 -75.291199
C -104.924000 -24.072284 -97.665095
C -138.925000 24.072284 -97.665095
C -129.318000 66.702182 -75.291199
C -119.711000 94.051414 -35.668996
C -110.104000 99.854600 12.124544
C -100.497000 82.782301 57.140497
C -90.890000 46.745574 89.066251
C -81.283000 0.000000 100.588000
C -71.676000 -46.745574 89.066251
C -62.069000 -82.782301 57.140497
C -52.462000 -99.854600 12.124544
C -42.855000 -94.051414 -35.668996
C -33.248000 -66.702182 -75.291199
C -23.641000 -24.072284 -97.665095
C -57.642000 24.072284 -97.665095
C -48.035000 66.702182 -75.291199
C -38.428000 94.051414 -35.668996
C -28.821000 99.854600 12.124544
C -19.214000 82.782301 57.140497
C -9.607000 46.745574 89.066251
C 0.000000 0.000000 100.588000
C 9.607000 -46.745574 89.066251
C 19.214000 -82.782301 57.140497
C 28.821000 -99.854600 12.124544
C 38.428000 -94.051414 -35.668996
C 48.035000 -66.702182 -75.291199
C 57.642000 -24.072284 -97.665095
C 23.641000 24.072284 -97.665095
C 33.248000 66.702182 -75.291199
C 42.855000 94.051414 -35.668996
C 52.462000 99.854600 12.124544
C 62.069000 82.782301 57.140497
C 71.676000 46.745574 89.066251
C 81.283000 0.000000 100.588000
C 90.890000 -46.745574 89.066251
C 100.497000 -82.782301 57.140497
C 110.104000 -99.854600 12.124544
C 119.711000 -94.051414 -35.668996
C 129.318000 -66.702182 -75.291199
C 138.925000 -24.072284 -97.665095
C 104.924000 24.072284 -97.665095
C 114.531000 66.702182 -75.291199
C 124.138000 94.051414 -35.668996
C 133.745000 99.854600 12.124544
C 143.352000 82.782301 57.140497
C 152.959000 46.745574 89.066251
C 162.566000 0.000000 100.588000
C 172.173000 -46.745574 89.066251
C 181.780000 -82.782301 57.140497
C 191.387000 -99.854600 12.124544
C 200.994000 -94.051414 -35.668996
C 210.601000 -66.702182 -75.291199
C 220.208000 -24.072284 -97.665095
C 186.207000 24.072284 -97.665095
C 195.814000 66.702182 -75.291199
C 205.421000 94.051414 -35.668996
C 215.028000 99.854600 12.124544
C 224.635000 82.782301 57.140497
C 234.242000 46.745574 89.066251
C 243.849000 0.000000 100.588000
C 253.456000 -46.745574 89.066251
C 263.063000 -82.782301 57.140497
C 272.670000 -99.854600 12.124544
C 282.277000 -94.051414 -35.668996
C 291.884000 -66.702182 -75.291199
C 301.491000 -24.072284 -97.665095
C 267.490000 24.072284 -97.665095
C 277.097000 66.702182 -75.291199
C 286.704000 94.051414 -35.668996
C 296.311000 99.854600 12.124544
C 305.918000 82.782301 57.140497
C 315.525000 46.745574 89.066251
C 325.132000 0.000000 100.588000
C 334.739000 -46.745574 89.066251
C 344.346000 -82.782301 57.140497
C 353.953000 -99.854600 12.124544
C 363.560000 -94.051414 -35.668996
C 373.167000 -66.702182 -75.291199
C 382.774000 -24.072284 -97.665095
C 348.773000 24.072284 -97.665095
C 358.380000 66.702182 -75.291199
C 367.987000 94.051414 -35.668996
C 377.594000 99.854600 12.124544
C 387.201000 82.782301 57.140497
C 396.808000 46.745574 89.066251
C 406.415000 0.000000 100.588000
C 416.022000 -46.745574 89.066251
C 425.629000 -82.782301 57.140497
C 435.236000 -99.854600 12.124544
C 444.843000 -94.051414 -35.668996
C 454.450000 -66.702182 -75.291199
C 464.057000 -24.072284 -97.665095
C 430.056000 24.072284 -97.665095
C 439.663000 66.702182 -75.291199
C 449.270000 94.051414 -35.668996
C 458.877000 99.854600 12.124544
C 468.484000 82.782301 57.140497
C 478.091000 46.745574 89.066251
C 487.698000 0.000000 100.588000
C 497.305000 -46.745574 89.066251
C 506.912000 -82.782301 57.140497
C 516.519000 -99.854600 12.124544
C 526.126000 -94.051414 -35.668996
C 535.733000 -66.702182 -75.291199
C 545.340000 -24.072284 -97.665095
C 511.339000 24.072284 -97.665095
C 520.946000 66.702182 -75.291199
C 530.553000 94.051414 -35.668996
C 540.160000 99.854600 12.124544
C 549.767000 82.782301 57.140497
C 559.374000 46.745574 89.066251
C 568.981000 0.000000 100.588000
C 578.588000 -46.745574 89.066251
C 588.195000 -82.782301 57.140497
C 597.802000 -99.854600 12.124544
C 607.409000 -94.051414 -35.668996
C 617.016000 -66.702182 -75.291199
C 626.623000 -24.072284 -97.665095
C 592.622000 24.072284 -97.665095
C 602.229000 66.702182 -75.291199
C 611.836000 94.051414 -35.668996
C 621.443000 99.854600 12.124544
C 631.050000 82.782301 57.140497
C 640.657000 46.745574 89.066251
C 650.264000 0.000000 100.588000
C 659.871000 -46.745574 89.066251
C 669.478000 -82.782301 57.140497
C 679.085000 -99.854600 12.124544
C 688.692000 -94.051414 -35.668996
C 698.299000 -66.702182 -75.291199
C 707.906000 -24.072284 -97.665095
C -179.469000 24.072284 -97.665095
C -169.862000 66.702182 -75.291199
C -160.255000 94.051414 -35.668996
C -150.648000 99.854600 12.124544
C -141.041000 82.782301 57.140497
C -131.434000 46.745574 89.066251
C -121.827000 0.000000 100.588000
C -112.220000 -46.745574 89.066251
C -102.613000 -82.782301 57.140497
C -93.006000 -99.854600 12.124544
C -83.399000 -94.051414 -35.668996
C -73.792000 -66.702182 -75.291199
C -64.185000 -24.072284 -97.665095
C -98.186000 24.072284 -97.665095
C -88.579000 66.702182 -75.291199
C -78.972000 94.051414 -35.668996
C -69.365000 99.854600 12.124544
C -59.758000 82.782301 57.140497
C -50.151000 46.745574 89.066251
C -40.544000 0.000000 100.588000
C -30.937000 -46.745574 89.066251
C -21.330000 -82.782301 57.140497
C -11.723000 -99.854600 12.124544
C -2.116000 -94.051414 -35.668996
C 7.491000 -66.702182 -75.291199
C 17.098000 -24.072284 -97.665095
C -16.903000 24.072284 -97.665095
C -7.296000 66.702182 -75.291199
C 2.311000 94.051414 -35.668996
C 11.918000 99.854600 12.124544
C 21.525000 82.782301 57.140497
C 31.132000 46.745574 89.066251
C 40.739000 0.000000 100.588000
C 50.346000 -46.745574 89.066251
C 59.953000 -82.782301 57.140497
C 69.560000 -99.854600 12.124544
C 79.167000 -94.051414 -35.668996
C 88.774000 -66.702182 -75.291199
C 98.381000 -24.072284 -97.665095
C 64.380000 24.072284 -97.665095
C 73.987000 66.702182 -75.291199
C 83.594000 94.051414 -35.668996
C 93.201000 99.854600 12.124544
C 102.808000 82.782301 57.140497
C 112.415000 46.745574 89.066251
C 122.022000 0.000000 100.588000
C 131.629000 -46.745574 89.066251
C 141.236000 -82.782301 57.140497
C 150.843000 -99.854600 12.124544
C 160.450000 -94.051414 -35.668996
C 170.057000 -66.702182 -75.291199
C 179.664000 -24.072284 -97.665095
C 145.663000 24.072284 -97.665095
C 155.270000 66.702182 -75.291199
C 164.877000 94.051414 -35.668996
C 174.484000 99.854600 12.124544
C 184.091000 82.782301 57.140497
C 193.698000 46.745574 89.066251
C 203.305000 0.000000 100.588000
C 212.912000 -46.745574 89.066251
C 222.519000 -82.782301 57.140497
C 232.126000 -99.854600 12.124544
C 241.733000 -94.051414 -35.668996
C 251.340000 -66.702182 -75.291199
C 260.947000 -24.072284 -97.665095
C 226.946000 24.072284 -97.665095
C 236.553000 66.702182 -75.291199
C 246.160000 94.051414 -35.668996
C 255.767000 99.854600 12.124544
C 265.374000 82.782301 57.140497
C 274.981000 46.745574 89.066251
C 284.588000 0.000000 100.588000
C 294.195000 -46.745574 89.066251
C 303.802000 -82.782301 57.140497
C 313.409000 -99.854600 12.124544
C 323.016000 -94.051414 -35.668996
C 332.623000 -66.702182 -75.291199
C 342.230000 -24.072284 -97.665095
C 308.229000 24.072284 -97.665095
C 317.836000 66.702182 -75.291199
C 327.443000 94.051414 -35.668996
C 337.050000 99.854600 12.124544
C 346.657000 82.782301 57.140497
C 356.264000 46.745574 89.066251
C 365.871000 0.000000 100.588000
C 375.478000 -46.745574 89.066251
C 385.085000 -82.782301 57.140497
C 394.692000 -99.854600 12.124544
C 404.299000 -94.051414 -35.668996
C 413.906000 -66.702182 -75.291199
C 423.513000 -24.072284 -97.665095
C 389.512000 24.072284 -97.665095
C 399.119000 66.702182 -75.291199
C 408.726000 94.051414 -35.668996
C 418.333000 99.854600 12.124544
C 427.940000 82.782301 57.140497
C 437.547000 46.745574 89.066251
C 447.154000 0.000000 100.588000
C 456.761000 -46.745574 89.066251
C 466.368000 -82.782301 57.140497
C 475.975000 -99.854600 12.124544
C 485.582000 -94.051414 -35.668996
C 495.189000 -66.702182 -75.291199
C 504.796000 -24.072284 -97.665095
C 470.795000 24.072284 -97.665095
C 480.402000 66.702182 -75.291199
C 490.009000 94.051414 -35.668996
C 499.616000 99.854600 12.124544
C 509.223000 82.782301 57.140497
C 518.830000 46.745574 89.066251
C 528.437000 0.000000 100.588000
C 538.044000 -46.745574 89.066251
C 547.651000 -82.782301 57.140497
C 557.258000 -99.854600 12.124544
C 566.865000 -94.051414 -35.668996
C 576.472000 -66.702182 -75.291199
C 586.079000 -24.072284 -97.665095
C 552.078000 24.072284 -97.665095
C 561.685000 66.702182 -75.291199
C 571.292000 94.051414 -35.668996
C 580.899000 99.854600 12.124544
C 590.506000 82.782301 57.140497
C 600.113000 46.745574 89.066251
C 609.720000 0.000000 100.588000
C 619.327000 -46.745574 89.066251
C 628.934000 -82.782301 57.140497
C 638.541000 -99.854600 12.124544
C 648.148000 -94.051414 -35.668996
C 657.755000 -66.702182 -75.291199
C 667.362000 -24.072284 -97.665095
C 633.361000 24.072284 -97.665095
C 642.968000 66.702182 -75.291199
C 652.575000 94.051414 -35.668996
C 662.182000 99.854600 12.124544
C 671.789000 82.782301 57.140497
C 681.396000 46.745574 89.066251
C 691.003000 0.000000 100.588000
C 700.610000 -46.745574 89.066251
C 710.217000 -82.782301 57.140497
C 719.824000 -99.854600 12.124544
C 729.431000 -94.051414 -35.668996
C 739.038000 -66.702182 -75.291199
C 748.645000 -24.072284 -97.665095
